Version 4
SHEET 1 880 680
WIRE 96 80 0 80
WIRE 336 96 288 96
WIRE 400 96 336 96
WIRE 0 128 0 80
WIRE 336 128 336 96
WIRE 400 128 400 96
WIRE 272 144 256 144
WIRE 176 160 176 80
WIRE 192 160 176 160
WIRE 288 176 288 96
WIRE 288 176 256 176
WIRE 0 240 0 208
WIRE 272 240 272 144
WIRE 272 240 256 240
WIRE 336 240 336 208
WIRE 336 240 272 240
WIRE 400 240 400 192
WIRE 400 240 336 240
WIRE 256 256 256 240
FLAG 0 240 0
FLAG 256 256 0
SYMBOL voltage 0 112 R0
SYMATTR InstName V1
SYMATTR Value 15
SYMBOL res 192 64 R90
WINDOW 0 0 56 VBottom 2
WINDOW 3 32 56 VTop 2
SYMATTR InstName R1
SYMATTR Value 1k
SYMBOL res 352 224 R180
WINDOW 0 36 76 Left 2
WINDOW 3 36 40 Left 2
SYMATTR InstName R2
SYMATTR Value 1k
SYMBOL cap 384 128 R0
SYMATTR InstName C1
SYMATTR Value 2200µ
SYMBOL AutoGenerated\\7805 224 160 R0
SYMATTR InstName U1
TEXT -34 280 Left 2 !.tran 0 100m 0 startup
